MODEL 1
REMARK VINA RESULT:    -2.623      0.000      0.000
REMARK INTER + INTRA:          -6.506
REMARK INTER:                  -4.924
REMARK INTRA:                  -1.582
REMARK UNBOUND:                -1.582
REMARK SMILES [H]/N=C(\N)c1ccc(CNC(=O)[C@@H]2CCCN2C(=O)CNC2CCCCCCC2)cc1
REMARK SMILES IDX 20 1 18 2 19 3 17 4 13 5 16 6 14 7 15 8 11 9 12 10 10 11
REMARK SMILES IDX 9 13 8 14 30 15 7 16 31 17 6 18 5 19 3 20 2 21 4 22 1 23
REMARK SMILES IDX 21 26 22 28 23 29 24 30 25 31 29 33 28 34 27 35 26 36
REMARK H PARENT 10 12 4 24 4 25 21 27
REMARK Flexibility Score: 80.00
ROOT
ATOM      1  C   UNL     1      16.520 -13.868  13.993  1.00  0.00     0.182 C 
ENDROOT
BRANCH   1   2
ATOM      2  C   UNL     1      16.543 -12.415  14.392  1.00  0.00     0.237 C 
ATOM      3  O   UNL     1      15.821 -11.620  13.829  1.00  0.00    -0.273 OA
BRANCH   2   4
ATOM      4  N   UNL     1      17.365 -11.999  15.376  1.00  0.00    -0.330 N 
ATOM      5  C   UNL     1      18.435 -10.993  15.234  1.00  0.00     0.174 C 
ATOM      6  C   UNL     1      17.345 -12.472  16.768  1.00  0.00     0.120 C 
ATOM      7  C   UNL     1      19.434 -11.314  16.373  1.00  0.00     0.037 C 
ATOM      8  C   UNL     1      18.477 -11.739  17.518  1.00  0.00     0.024 C 
BRANCH   5   9
ATOM      9  C   UNL     1      19.106 -11.127  13.892  1.00  0.00     0.243 C 
ATOM     10  O   UNL     1      20.224 -11.593  13.818  1.00  0.00    -0.273 OA
ATOM     11  N   UNL     1      18.464 -10.734  12.774  1.00  0.00    -0.350 N 
ATOM     12  H   UNL     1      17.570 -10.362  12.834  1.00  0.00     0.163 HD
BRANCH  11  13
ATOM     13  C   UNL     1      19.116 -10.870  11.470  1.00  0.00     0.151 C 
BRANCH  13  14
ATOM     14  C   UNL     1      18.545 -12.062  10.745  1.00  0.00    -0.029 A 
ATOM     15  C   UNL     1      17.174 -12.220  10.651  1.00  0.00     0.006 A 
ATOM     16  C   UNL     1      19.394 -12.991  10.171  1.00  0.00     0.006 A 
ATOM     17  C   UNL     1      16.645 -13.309   9.990  1.00  0.00     0.012 A 
ATOM     18  C   UNL     1      18.877 -14.088   9.512  1.00  0.00     0.012 A 
ATOM     19  C   UNL     1      17.496 -14.252   9.414  1.00  0.00     0.016 A 
BRANCH  19  20
ATOM     20  C   UNL     1      16.935 -15.424   8.703  1.00  0.00     0.122 C 
ATOM     21  N   UNL     1      16.018 -15.255   7.794  1.00  0.00    -0.284 NA
ATOM     22  N   UNL     1      17.384 -16.691   9.001  1.00  0.00    -0.384 N 
ATOM     23  H   UNL     1      15.650 -16.022   7.327  1.00  0.00     0.189 HD
ATOM     24  H   UNL     1      18.067 -16.816   9.679  1.00  0.00     0.158 HD
ATOM     25  H   UNL     1      17.017 -17.458   8.535  1.00  0.00     0.158 HD
ENDBRANCH  19  20
ENDBRANCH  13  14
ENDBRANCH  11  13
ENDBRANCH   5   9
ENDBRANCH   2   4
ENDBRANCH   1   2
BRANCH   1  26
ATOM     26  N   UNL     1      17.895 -14.339  13.782  1.00  0.00    -0.306 NA
ATOM     27  H   UNL     1      18.361 -13.789  13.074  1.00  0.00     0.123 HD
BRANCH  26  28
ATOM     28  C   UNL     1      17.916 -15.766  13.438  1.00  0.00     0.054 C 
BRANCH  28  29
ATOM     29  C   UNL     1      17.695 -16.599  14.702  1.00  0.00     0.019 C 
BRANCH  29  30
ATOM     30  C   UNL     1      18.312 -15.878  15.902  1.00  0.00     0.002 C 
BRANCH  30  31
ATOM     31  C   UNL     1      19.759 -16.339  16.084  1.00  0.00     0.000 CG0
ATOM     32  G   UNL     1      20.709 -15.244  15.594  1.00  0.00     0.000 G0
ENDBRANCH  30  31
ENDBRANCH  29  30
ENDBRANCH  28  29
BRANCH  28  33
ATOM     33  C   UNL     1      19.270 -16.124  12.822  1.00  0.00     0.019 C 
BRANCH  33  34
ATOM     34  C   UNL     1      20.288 -15.034  13.162  1.00  0.00     0.002 C 
BRANCH  34  35
ATOM     35  C   UNL     1      21.252 -15.552  14.231  1.00  0.00     0.000 C 
BRANCH  35  36
ATOM     36  C   UNL     1      20.702 -15.216  15.618  1.00  0.00     0.000 CG0
ATOM     37  G   UNL     1      19.750 -16.325  16.072  1.00  0.00     0.000 G0
ENDBRANCH  35  36
ENDBRANCH  34  35
ENDBRANCH  33  34
ENDBRANCH  28  33
ENDBRANCH  26  28
ENDBRANCH   1  26
TORSDOF 8
ENDMDL
MODEL 2
REMARK VINA RESULT:    -2.449      5.394      7.393
REMARK INTER + INTRA:          -6.179
REMARK INTER:                  -7.183
REMARK INTRA:                   1.004
REMARK UNBOUND:                -1.582
REMARK SMILES [H]/N=C(\N)c1ccc(CNC(=O)[C@@H]2CCCN2C(=O)CNC2CCCCCCC2)cc1
REMARK SMILES IDX 20 1 18 2 19 3 17 4 13 5 16 6 14 7 15 8 11 9 12 10 10 11
REMARK SMILES IDX 9 13 8 14 30 15 7 16 31 17 6 18 5 19 3 20 2 21 4 22 1 23
REMARK SMILES IDX 21 26 22 28 23 29 24 30 25 31 29 33 28 34 27 35 26 36
REMARK H PARENT 10 12 4 24 4 25 21 27
REMARK Flexibility Score: 80.00
ROOT
ATOM      1  C   UNL     1      18.236  -9.823  11.447  1.00  0.00     0.182 C 
ENDROOT
BRANCH   1   2
ATOM      2  C   UNL     1      17.837  -8.708  12.378  1.00  0.00     0.237 C 
ATOM      3  O   UNL     1      18.406  -7.638  12.322  1.00  0.00    -0.273 OA
BRANCH   2   4
ATOM      4  N   UNL     1      16.848  -8.898  13.274  1.00  0.00    -0.330 N 
ATOM      5  C   UNL     1      15.728  -7.973  13.529  1.00  0.00     0.174 C 
ATOM      6  C   UNL     1      16.707 -10.064  14.159  1.00  0.00     0.120 C 
ATOM      7  C   UNL     1      15.270  -8.293  14.973  1.00  0.00     0.037 C 
ATOM      8  C   UNL     1      15.448  -9.833  15.023  1.00  0.00     0.024 C 
BRANCH   5   9
ATOM      9  C   UNL     1      16.196  -6.544  13.431  1.00  0.00     0.243 C 
ATOM     10  O   UNL     1      16.753  -6.022  14.374  1.00  0.00    -0.273 OA
ATOM     11  N   UNL     1      16.001  -5.847  12.294  1.00  0.00    -0.350 N 
ATOM     12  H   UNL     1      15.556  -6.264  11.539  1.00  0.00     0.163 HD
BRANCH  11  13
ATOM     13  C   UNL     1      16.460  -4.460  12.197  1.00  0.00     0.151 C 
BRANCH  13  14
ATOM     14  C   UNL     1      17.085  -4.230  10.845  1.00  0.00    -0.029 A 
ATOM     15  C   UNL     1      18.393  -4.617  10.616  1.00  0.00     0.006 A 
ATOM     16  C   UNL     1      16.346  -3.639   9.836  1.00  0.00     0.006 A 
ATOM     17  C   UNL     1      18.971  -4.409   9.380  1.00  0.00     0.012 A 
ATOM     18  C   UNL     1      16.916  -3.420   8.598  1.00  0.00     0.012 A 
ATOM     19  C   UNL     1      18.234  -3.808   8.361  1.00  0.00     0.016 A 
BRANCH  19  20
ATOM     20  C   UNL     1      18.848  -3.582   7.032  1.00  0.00     0.122 C 
ATOM     21  N   UNL     1      18.092  -3.436   5.983  1.00  0.00    -0.284 NA
ATOM     22  N   UNL     1      20.218  -3.527   6.907  1.00  0.00    -0.384 N 
ATOM     23  H   UNL     1      18.494  -3.287   5.112  1.00  0.00     0.189 HD
ATOM     24  H   UNL     1      20.782  -3.637   7.689  1.00  0.00     0.158 HD
ATOM     25  H   UNL     1      20.620  -3.379   6.037  1.00  0.00     0.158 HD
ENDBRANCH  19  20
ENDBRANCH  13  14
ENDBRANCH  11  13
ENDBRANCH   5   9
ENDBRANCH   2   4
ENDBRANCH   1   2
BRANCH   1  26
ATOM     26  N   UNL     1      19.472 -10.449  11.934  1.00  0.00    -0.306 NA
ATOM     27  H   UNL     1      20.252  -9.811  11.863  1.00  0.00     0.123 HD
BRANCH  26  28
ATOM     28  C   UNL     1      19.748 -11.700  11.216  1.00  0.00     0.054 C 
BRANCH  28  29
ATOM     29  C   UNL     1      20.823 -11.453  10.156  1.00  0.00     0.019 C 
BRANCH  29  30
ATOM     30  C   UNL     1      21.764 -12.658  10.093  1.00  0.00     0.002 C 
BRANCH  30  31
ATOM     31  C   UNL     1      21.457 -13.479   8.839  1.00  0.00     0.000 CG0
ATOM     32  G   UNL     1      20.385 -14.521   9.163  1.00  0.00     0.000 G0
ENDBRANCH  30  31
ENDBRANCH  29  30
ENDBRANCH  28  29
BRANCH  28  33
ATOM     33  C   UNL     1      18.467 -12.192  10.539  1.00  0.00     0.019 C 
BRANCH  33  34
ATOM     34  C   UNL     1      18.439 -13.722  10.554  1.00  0.00     0.002 C 
BRANCH  34  35
ATOM     35  C   UNL     1      19.870 -14.258  10.614  1.00  0.00     0.000 C 
BRANCH  35  36
ATOM     36  C   UNL     1      20.376 -14.519   9.194  1.00  0.00     0.000 CG0
ATOM     37  G   UNL     1      21.446 -13.486   8.835  1.00  0.00     0.000 G0
ENDBRANCH  35  36
ENDBRANCH  34  35
ENDBRANCH  33  34
ENDBRANCH  28  33
ENDBRANCH  26  28
ENDBRANCH   1  26
TORSDOF 8
ENDMDL
MODEL 3
REMARK VINA RESULT:    -2.438      2.230      3.577
REMARK INTER + INTRA:          -6.157
REMARK INTER:                  -4.850
REMARK INTRA:                  -1.308
REMARK UNBOUND:                -1.582
REMARK SMILES [H]/N=C(\N)c1ccc(CNC(=O)[C@@H]2CCCN2C(=O)CNC2CCCCCCC2)cc1
REMARK SMILES IDX 20 1 18 2 19 3 17 4 13 5 16 6 14 7 15 8 11 9 12 10 10 11
REMARK SMILES IDX 9 13 8 14 30 15 7 16 31 17 6 18 5 19 3 20 2 21 4 22 1 23
REMARK SMILES IDX 21 26 22 28 23 29 24 30 25 31 29 33 28 34 27 35 26 36
REMARK H PARENT 10 12 4 24 4 25 21 27
REMARK Flexibility Score: 80.00
ROOT
ATOM      1  C   UNL     1      20.584 -11.732  15.618  1.00  0.00     0.182 C 
ENDROOT
BRANCH   1   2
ATOM      2  C   UNL     1      21.674 -10.846  15.072  1.00  0.00     0.237 C 
ATOM      3  O   UNL     1      21.761  -9.695  15.441  1.00  0.00    -0.273 OA
BRANCH   2   4
ATOM      4  N   UNL     1      22.553 -11.334  14.174  1.00  0.00    -0.330 N 
ATOM      5  C   UNL     1      22.738 -10.839  12.797  1.00  0.00     0.174 C 
ATOM      6  C   UNL     1      23.485 -12.447  14.404  1.00  0.00     0.120 C 
ATOM      7  C   UNL     1      23.339 -12.039  12.022  1.00  0.00     0.037 C 
ATOM      8  C   UNL     1      24.269 -12.667  13.093  1.00  0.00     0.024 C 
BRANCH   5   9
ATOM      9  C   UNL     1      21.414 -10.439  12.200  1.00  0.00     0.243 C 
ATOM     10  O   UNL     1      21.211  -9.282  11.895  1.00  0.00    -0.273 OA
ATOM     11  N   UNL     1      20.456 -11.366  12.002  1.00  0.00    -0.350 N 
ATOM     12  H   UNL     1      20.619 -12.292  12.245  1.00  0.00     0.163 HD
BRANCH  11  13
ATOM     13  C   UNL     1      19.171 -10.978  11.417  1.00  0.00     0.151 C 
BRANCH  13  14
ATOM     14  C   UNL     1      18.587 -12.147  10.665  1.00  0.00    -0.029 A 
ATOM     15  C   UNL     1      19.421 -13.005   9.971  1.00  0.00     0.006 A 
ATOM     16  C   UNL     1      17.220 -12.360  10.677  1.00  0.00     0.006 A 
ATOM     17  C   UNL     1      18.892 -14.076   9.280  1.00  0.00     0.012 A 
ATOM     18  C   UNL     1      16.680 -13.425   9.985  1.00  0.00     0.012 A 
ATOM     19  C   UNL     1      17.515 -14.293   9.283  1.00  0.00     0.016 A 
BRANCH  19  20
ATOM     20  C   UNL     1      16.941 -15.441   8.544  1.00  0.00     0.122 C 
ATOM     21  N   UNL     1      15.857 -15.285   7.840  1.00  0.00    -0.284 NA
ATOM     22  N   UNL     1      17.555 -16.673   8.601  1.00  0.00    -0.384 N 
ATOM     23  H   UNL     1      15.481 -16.037   7.356  1.00  0.00     0.189 HD
ATOM     24  H   UNL     1      18.362 -16.789   9.126  1.00  0.00     0.158 HD
ATOM     25  H   UNL     1      17.178 -17.425   8.117  1.00  0.00     0.158 HD
ENDBRANCH  19  20
ENDBRANCH  13  14
ENDBRANCH  11  13
ENDBRANCH   5   9
ENDBRANCH   2   4
ENDBRANCH   1   2
BRANCH   1  26
ATOM     26  N   UNL     1      19.611 -12.022  14.556  1.00  0.00    -0.306 NA
ATOM     27  H   UNL     1      18.859 -11.348  14.562  1.00  0.00     0.123 HD
BRANCH  26  28
ATOM     28  C   UNL     1      19.092 -13.390  14.676  1.00  0.00     0.054 C 
BRANCH  28  29
ATOM     29  C   UNL     1      18.391 -13.553  16.026  1.00  0.00     0.019 C 
BRANCH  29  30
ATOM     30  C   UNL     1      18.177 -15.041  16.314  1.00  0.00     0.002 C 
BRANCH  30  31
ATOM     31  C   UNL     1      17.194 -15.620  15.296  1.00  0.00     0.000 CG0
ATOM     32  G   UNL     1      17.964 -16.416  14.240  1.00  0.00     0.000 G0
ENDBRANCH  30  31
ENDBRANCH  29  30
ENDBRANCH  28  29
BRANCH  28  33
ATOM     33  C   UNL     1      20.250 -14.386  14.579  1.00  0.00     0.019 C 
BRANCH  33  34
ATOM     34  C   UNL     1      20.029 -15.308  13.379  1.00  0.00     0.002 C 
BRANCH  34  35
ATOM     35  C   UNL     1      18.528 -15.499  13.152  1.00  0.00     0.000 C 
BRANCH  35  36
ATOM     36  C   UNL     1      17.966 -16.434  14.224  1.00  0.00     0.000 CG0
ATOM     37  G   UNL     1      17.224 -15.613  15.281  1.00  0.00     0.000 G0
ENDBRANCH  35  36
ENDBRANCH  34  35
ENDBRANCH  33  34
ENDBRANCH  28  33
ENDBRANCH  26  28
ENDBRANCH   1  26
TORSDOF 8
ENDMDL
MODEL 4
REMARK VINA RESULT:    -2.209      3.729      6.668
REMARK INTER + INTRA:          -5.729
REMARK INTER:                  -5.768
REMARK INTRA:                   0.039
REMARK UNBOUND:                -1.582
REMARK SMILES [H]/N=C(\N)c1ccc(CNC(=O)[C@@H]2CCCN2C(=O)CNC2CCCCCCC2)cc1
REMARK SMILES IDX 20 1 18 2 19 3 17 4 13 5 16 6 14 7 15 8 11 9 12 10 10 11
REMARK SMILES IDX 9 13 8 14 30 15 7 16 31 17 6 18 5 19 3 20 2 21 4 22 1 23
REMARK SMILES IDX 21 26 22 28 23 29 24 30 25 31 29 33 28 34 27 35 26 36
REMARK H PARENT 10 12 4 24 4 25 21 27
REMARK Flexibility Score: 80.00
ROOT
ATOM      1  C   UNL     1      20.388 -14.957  11.641  1.00  0.00     0.182 C 
ENDROOT
BRANCH   1   2
ATOM      2  C   UNL     1      18.904 -15.202  11.731  1.00  0.00     0.237 C 
ATOM      3  O   UNL     1      18.425 -15.661  12.746  1.00  0.00    -0.273 OA
BRANCH   2   4
ATOM      4  N   UNL     1      18.108 -14.911  10.682  1.00  0.00    -0.330 N 
ATOM      5  C   UNL     1      17.616 -13.567  10.323  1.00  0.00     0.174 C 
ATOM      6  C   UNL     1      17.587 -15.880   9.707  1.00  0.00     0.120 C 
ATOM      7  C   UNL     1      16.324 -13.823   9.508  1.00  0.00     0.037 C 
ATOM      8  C   UNL     1      16.707 -15.098   8.709  1.00  0.00     0.024 C 
BRANCH   5   9
ATOM      9  C   UNL     1      17.304 -12.774  11.565  1.00  0.00     0.243 C 
ATOM     10  O   UNL     1      16.312 -13.029  12.215  1.00  0.00    -0.273 OA
ATOM     11  N   UNL     1      18.129 -11.783  11.956  1.00  0.00    -0.350 N 
ATOM     12  H   UNL     1      18.923 -11.578  11.437  1.00  0.00     0.163 HD
BRANCH  11  13
ATOM     13  C   UNL     1      17.829 -11.015  13.167  1.00  0.00     0.151 C 
BRANCH  13  14
ATOM     14  C   UNL     1      17.649  -9.561  12.808  1.00  0.00    -0.029 A 
ATOM     15  C   UNL     1      16.599  -8.843  13.350  1.00  0.00     0.006 A 
ATOM     16  C   UNL     1      18.539  -8.950  11.943  1.00  0.00     0.006 A 
ATOM     17  C   UNL     1      16.428  -7.513  13.025  1.00  0.00     0.012 A 
ATOM     18  C   UNL     1      18.375  -7.622  11.606  1.00  0.00     0.012 A 
ATOM     19  C   UNL     1      17.318  -6.893  12.149  1.00  0.00     0.016 A 
BRANCH  19  20
ATOM     20  C   UNL     1      17.141  -5.465  11.796  1.00  0.00     0.122 C 
ATOM     21  N   UNL     1      17.628  -5.006  10.680  1.00  0.00    -0.284 NA
ATOM     22  N   UNL     1      16.460  -4.624  12.649  1.00  0.00    -0.384 N 
ATOM     23  H   UNL     1      17.512  -4.071  10.448  1.00  0.00     0.189 HD
ATOM     24  H   UNL     1      16.098  -4.966  13.481  1.00  0.00     0.158 HD
ATOM     25  H   UNL     1      16.345  -3.689  12.417  1.00  0.00     0.158 HD
ENDBRANCH  19  20
ENDBRANCH  13  14
ENDBRANCH  11  13
ENDBRANCH   5   9
ENDBRANCH   2   4
ENDBRANCH   1   2
BRANCH   1  26
ATOM     26  N   UNL     1      20.757 -13.852  12.535  1.00  0.00    -0.306 NA
ATOM     27  H   UNL     1      19.940 -13.335  12.826  1.00  0.00     0.123 HD
BRANCH  26  28
ATOM     28  C   UNL     1      21.742 -12.967  11.900  1.00  0.00     0.054 C 
BRANCH  28  29
ATOM     29  C   UNL     1      22.858 -12.648  12.896  1.00  0.00     0.019 C 
BRANCH  29  30
ATOM     30  C   UNL     1      24.048 -12.038  12.152  1.00  0.00     0.002 C 
BRANCH  30  31
ATOM     31  C   UNL     1      24.303 -12.826  10.866  1.00  0.00     0.000 CG0
ATOM     32  G   UNL     1      23.720 -12.062   9.676  1.00  0.00     0.000 G0
ENDBRANCH  30  31
ENDBRANCH  29  30
ENDBRANCH  28  29
BRANCH  28  33
ATOM     33  C   UNL     1      21.058 -11.669  11.466  1.00  0.00     0.019 C 
BRANCH  33  34
ATOM     34  C   UNL     1      21.312 -11.432   9.977  1.00  0.00     0.002 C 
BRANCH  34  35
ATOM     35  C   UNL     1      22.267 -12.502   9.445  1.00  0.00     0.000 C 
BRANCH  35  36
ATOM     36  C   UNL     1      23.712 -12.052   9.669  1.00  0.00     0.000 CG0
ATOM     37  G   UNL     1      24.309 -12.820  10.850  1.00  0.00     0.000 G0
ENDBRANCH  35  36
ENDBRANCH  34  35
ENDBRANCH  33  34
ENDBRANCH  28  33
ENDBRANCH  26  28
ENDBRANCH   1  26
TORSDOF 8
ENDMDL
MODEL 5
REMARK VINA RESULT:    -2.174      3.082      5.859
REMARK INTER + INTRA:          -5.662
REMARK INTER:                  -4.658
REMARK INTRA:                  -1.004
REMARK UNBOUND:                -1.582
REMARK SMILES [H]/N=C(\N)c1ccc(CNC(=O)[C@@H]2CCCN2C(=O)CNC2CCCCCCC2)cc1
REMARK SMILES IDX 20 1 18 2 19 3 17 4 13 5 16 6 14 7 15 8 11 9 12 10 10 11
REMARK SMILES IDX 9 13 8 14 30 15 7 16 31 17 6 18 5 19 3 20 2 21 4 22 1 23
REMARK SMILES IDX 21 26 22 28 23 29 24 30 25 31 29 33 28 34 27 35 26 36
REMARK H PARENT 10 12 4 24 4 25 21 27
REMARK Flexibility Score: 80.00
ROOT
ATOM      1  C   UNL     1      18.165  -9.816  12.046  1.00  0.00     0.182 C 
ENDROOT
BRANCH   1   2
ATOM      2  C   UNL     1      18.516  -8.590  12.848  1.00  0.00     0.237 C 
ATOM      3  O   UNL     1      19.367  -8.652  13.709  1.00  0.00    -0.273 OA
BRANCH   2   4
ATOM      4  N   UNL     1      17.885  -7.423  12.608  1.00  0.00    -0.330 N 
ATOM      5  C   UNL     1      16.847  -6.816  13.462  1.00  0.00     0.174 C 
ATOM      6  C   UNL     1      18.117  -6.545  11.452  1.00  0.00     0.120 C 
ATOM      7  C   UNL     1      16.038  -5.899  12.511  1.00  0.00     0.037 C 
ATOM      8  C   UNL     1      17.155  -5.346  11.586  1.00  0.00     0.024 C 
BRANCH   5   9
ATOM      9  C   UNL     1      15.958  -7.883  14.045  1.00  0.00     0.243 C 
ATOM     10  O   UNL     1      14.936  -8.201  13.472  1.00  0.00    -0.273 OA
ATOM     11  N   UNL     1      16.298  -8.487  15.201  1.00  0.00    -0.350 N 
ATOM     12  H   UNL     1      17.115  -8.233  15.659  1.00  0.00     0.163 HD
BRANCH  11  13
ATOM     13  C   UNL     1      15.436  -9.527  15.765  1.00  0.00     0.151 C 
BRANCH  13  14
ATOM     14  C   UNL     1      16.020 -10.883  15.460  1.00  0.00    -0.029 A 
ATOM     15  C   UNL     1      15.347 -11.750  14.618  1.00  0.00     0.006 A 
ATOM     16  C   UNL     1      17.229 -11.255  16.021  1.00  0.00     0.006 A 
ATOM     17  C   UNL     1      15.876 -12.993  14.336  1.00  0.00     0.012 A 
ATOM     18  C   UNL     1      17.765 -12.498  15.751  1.00  0.00     0.012 A 
ATOM     19  C   UNL     1      17.091 -13.375  14.902  1.00  0.00     0.016 A 
BRANCH  19  20
ATOM     20  C   UNL     1      17.665 -14.708  14.604  1.00  0.00     0.122 C 
ATOM     21  N   UNL     1      18.897 -14.809  14.197  1.00  0.00    -0.284 NA
ATOM     22  N   UNL     1      16.895 -15.839  14.758  1.00  0.00    -0.384 N 
ATOM     23  H   UNL     1      19.273 -15.682  14.001  1.00  0.00     0.189 HD
ATOM     24  H   UNL     1      15.976 -15.763  15.061  1.00  0.00     0.158 HD
ATOM     25  H   UNL     1      17.271 -16.712  14.563  1.00  0.00     0.158 HD
ENDBRANCH  19  20
ENDBRANCH  13  14
ENDBRANCH  11  13
ENDBRANCH   5   9
ENDBRANCH   2   4
ENDBRANCH   1   2
BRANCH   1  26
ATOM     26  N   UNL     1      18.823 -10.991  12.632  1.00  0.00    -0.306 NA
ATOM     27  H   UNL     1      19.749 -10.759  12.960  1.00  0.00     0.123 HD
BRANCH  26  28
ATOM     28  C   UNL     1      18.866 -12.103  11.675  1.00  0.00     0.054 C 
BRANCH  28  29
ATOM     29  C   UNL     1      20.242 -12.148  11.007  1.00  0.00     0.019 C 
BRANCH  29  30
ATOM     30  C   UNL     1      20.107 -12.732   9.599  1.00  0.00     0.002 C 
BRANCH  30  31
ATOM     31  C   UNL     1      20.059 -14.259   9.684  1.00  0.00     0.000 CG0
ATOM     32  G   UNL     1      18.616 -14.735   9.504  1.00  0.00     0.000 G0
ENDBRANCH  30  31
ENDBRANCH  29  30
ENDBRANCH  28  29
BRANCH  28  33
ATOM     33  C   UNL     1      17.788 -11.901  10.608  1.00  0.00     0.019 C 
BRANCH  33  34
ATOM     34  C   UNL     1      16.931 -13.164  10.504  1.00  0.00     0.002 C 
BRANCH  34  35
ATOM     35  C   UNL     1      17.802 -14.395  10.764  1.00  0.00     0.000 C 
BRANCH  35  36
ATOM     36  C   UNL     1      18.601 -14.728   9.502  1.00  0.00     0.000 CG0
ATOM     37  G   UNL     1      20.046 -14.257   9.673  1.00  0.00     0.000 G0
ENDBRANCH  35  36
ENDBRANCH  34  35
ENDBRANCH  33  34
ENDBRANCH  28  33
ENDBRANCH  26  28
ENDBRANCH   1  26
TORSDOF 8
ENDMDL
